Version 4
SHEET 1 1660 1080
WIRE 384 -96 240 -96
WIRE 512 -96 384 -96
WIRE 240 -80 240 -96
WIRE 512 -48 512 -96
WIRE 688 -48 512 -48
WIRE 688 -32 688 -48
WIRE 512 -16 512 -48
WIRE -64 112 -192 112
WIRE 16 112 -64 112
WIRE 240 112 240 -16
WIRE 240 112 96 112
WIRE 384 112 384 -96
WIRE 688 128 688 48
WIRE 912 128 688 128
WIRE 240 144 240 112
WIRE 512 144 512 64
WIRE 608 144 512 144
WIRE -192 176 -192 112
WIRE -64 176 -64 112
WIRE 512 176 512 144
WIRE 688 176 688 128
WIRE 1168 208 1168 160
WIRE 912 272 912 128
WIRE 1008 272 912 272
WIRE 1360 304 1328 304
WIRE -512 320 -512 288
WIRE -192 320 -192 256
WIRE -192 320 -512 320
WIRE -64 320 -64 240
WIRE -64 320 -192 320
WIRE 240 320 240 240
WIRE 240 320 -64 320
WIRE 384 320 384 176
WIRE 384 320 240 320
WIRE 512 320 512 256
WIRE 512 320 384 320
WIRE 688 320 688 256
WIRE 688 320 512 320
WIRE 1008 336 976 336
WIRE 384 368 384 320
WIRE 688 400 688 320
WIRE 752 400 688 400
WIRE 864 400 816 400
WIRE 1008 400 864 400
WIRE 1376 432 1328 432
WIRE 864 464 864 400
WIRE 960 464 944 464
WIRE 1008 464 960 464
WIRE 960 544 960 464
WIRE 1168 592 1168 528
WIRE 608 688 608 144
WIRE 1376 688 1376 432
WIRE 1376 688 608 688
FLAG 384 368 0
FLAG 512 -96 Out
FLAG 240 112 bridge
FLAG 1440 304 GS
FLAG 192 224 GS
FLAG 960 608 0
FLAG 1168 592 0
FLAG 1168 160 15V
FLAG -512 208 15V
SYMBOL ind 0 128 R270
WINDOW 0 32 56 VTop 2
WINDOW 3 5 56 VBottom 2
SYMATTR InstName L1
SYMATTR Value 1000n
SYMATTR SpiceLine Ipk=63 Rser=0.0016 Rpar=94.2 Cpar=0 mfg="Coilcraft" pn="CU8838"
SYMBOL polcap 368 112 R0
WINDOW 3 24 56 Left 2
SYMATTR InstName C1
SYMATTR Value 3300µ
SYMATTR Description Capacitor
SYMATTR Type cap
SYMATTR SpiceLine V=63 Irms=2.27 Rser=0.0218909 Lser=34.4602n mfg="Würth Elektronik" pn="861140784012 WCAP-AI3H 25x35" type="Al electrolytic"
SYMBOL res 496 -32 R0
SYMATTR InstName R1
SYMATTR Value 1
SYMATTR SpiceLine pwr=500
SYMBOL nmos 192 144 R0
SYMATTR InstName M1
SYMATTR Value BSC016N03MS
SYMBOL voltage -192 160 R0
WINDOW 123 0 0 Left 0
WINDOW 39 0 0 Left 0
SYMATTR InstName V1
SYMATTR Value 12
SYMBOL PowerProducts\\LT1241 1168 368 R0
SYMATTR InstName U1
SYMBOL res 672 -48 R0
SYMATTR InstName R2
SYMATTR Value 580K
SYMATTR SpiceLine pwr=500
SYMBOL res 672 160 R0
SYMATTR InstName R3
SYMATTR Value 100K
SYMATTR SpiceLine pwr=500
SYMBOL voltage -512 192 R0
WINDOW 123 0 0 Left 0
WINDOW 39 0 0 Left 0
SYMATTR InstName V2
SYMATTR Value 15
SYMBOL schottky 256 -16 R180
WINDOW 0 24 64 Left 2
WINDOW 3 24 0 Left 2
SYMATTR InstName D1
SYMATTR Value MBRS1100
SYMATTR Description Diode
SYMATTR Type diode
SYMBOL res 1456 288 R90
WINDOW 0 0 56 VBottom 2
WINDOW 3 32 56 VTop 2
SYMATTR InstName R4
SYMATTR Value 6
SYMATTR SpiceLine pwr=500
SYMBOL res 960 448 R90
WINDOW 0 0 56 VBottom 2
WINDOW 3 32 56 VTop 2
SYMATTR InstName R5
SYMATTR Value 2600
SYMATTR SpiceLine pwr=0.25
SYMBOL cap 944 544 R0
SYMATTR InstName C2
SYMATTR Value 2.3n
SYMATTR SpiceLine V=100
SYMBOL res 496 160 R0
SYMATTR InstName R6
SYMATTR Value 0.0075
SYMATTR SpiceLine pwr=500
SYMBOL cap 816 384 R90
WINDOW 0 0 32 VBottom 2
WINDOW 3 32 32 VTop 2
SYMATTR InstName C3
SYMATTR Value 0.1
SYMBOL polcap -80 176 R0
WINDOW 3 24 56 Left 2
SYMATTR InstName C5
SYMATTR Value 3300µ
SYMATTR Description Capacitor
SYMATTR Type cap
SYMATTR SpiceLine V=63 Irms=2.27 Rser=0.0218909 Lser=34.4602n mfg="Würth Elektronik" pn="861140784012 WCAP-AI3H 25x35" type="Al electrolytic"
TEXT -248 -176 Left 2 !.tran 0.01u 1m 0
